 &NACIETEO
 /
 &NACOBS
 /
 &NACTAN
 /
 &NACTEX
 /
 &NACVEG
 /
 &NADOCK
 /
 &NAEAEM7
 /
 &NAEAER
 /
 &NAECOAPHY
 /
 &NAEPHLI
 /
 &NAEPHY
 /
 &NAERAD
   LRRTM=.TRUE.,
   LSRTM=.FALSE.,
   NMCICA=0,
   NRADFR=-1,
   NSW=6,
   RLWINHF=0.9,
   NHINCSOL=0,
   TRBKG=0.03,
   STBKG=0.045,
 /
 &NAERCLI
 /
 &NAETLDIAG
 /
 &NAEVOL
 /
 &NAIMPO
 /
 &NALORI
 /
 &NAMACV
 /
 &NAMAERDET
 /
 &NAMAFN
   GFP_CCP%IBITS=16,
   GFP_CCSF%IBITS=16,
   GFP_CE%IBITS=16,
   GFP_CLHE%IBITS=16,
   GFP_CLHS%IBITS=16,
   GFP_CLSP%IBITS=16,
   GFP_CLSS%IBITS=16,
   GFP_CS%IBITS=16,
   GFP_CSMR%IBITS=16,
   GFP_CSSH%IBITS=16,
   GFP_CSSR%IBITS=16,
   GFP_CSTR%IBITS=16,
   GFP_CTSR%IBITS=16,
   GFP_CTTR%IBITS=16,
   GFP_CUGW%IBITS=16,
   GFP_CUSS%IBITS=16,
   GFP_CVGW%IBITS=16,
   GFP_CVSS%IBITS=16,
   GFP_DST%IBITS=12,
   GFP_SSW%IBITS=16,
   GFP_DSW%IBITS=16,
   GFP_FSSW%IBITS=16,
   GFP_FDSW%IBITS=16,
   GFP_SD%IBITS=16,
   GFP_XCAPE%IBITS=16,
   GFP_ST%CLNAME='SURFTEMPERATURE',
   GFP_ST%IANO=0,
   GFP_ST%IBITS=12,
   GFP_X10U%CLNAME='CLSVENT.ZONAL',
   GFP_X10U%IBITS=12,
   GFP_X10U%IANO=0,
   GFP_X10V%CLNAME='CLSVENT.MERIDIEN',
   GFP_X10V%IBITS=12,
   GFP_X10V%IANO=0,
   GFP_X2RH%CLNAME='CLSHUMI.RELATIVE',
   GFP_X2RH%IBITS=12,
   GFP_X2RH%IANO=0,
   GFP_X2T%CLNAME='CLSTEMPERATURE',
   GFP_X2T%IBITS=12,
   GFP_X2T%IANO=1,
   GFP_XCCC%IBITS=8,
   GFP_XCLPH%IBITS=16,
   GFP_XCLPH%LLMON=.TRUE.,
   GFP_XHCC%IBITS=8,
   GFP_XLCC%IBITS=8,
   GFP_XMCC%IBITS=8,
   GFP_XMOCO%IBITS=16,
   GFP_XTCC%IBITS=8,
   TFP_ABS%IBITS=16,
   TFP_DIV%IBITS=16,
   TFP_HTPW%IBITS=16,
   TFP_HU%IBITS=12,
   TFP_MSL%IBITS=12,
   TFP_P%IBITS=16,
   TFP_PV%IBITS=16,
   TFP_SP%IBITS=16,
   TFP_T%IBITS=12,
   TFP_TH%IBITS=12,
   TFP_THPW%IBITS=12,
   TFP_TWV%IBITS=12,
   TFP_U%IBITS=12,
   TFP_V%IBITS=12,
   TFP_VV%IBITS=16,
   TFP_Z%IBITS=16,
   TFP_CAPE%CLNAME='SURFCAPE.POS.F00',
   TFP_CAPE%IBITS=16,
   TFP_I%LLGP=.TRUE.,
   TFP_L%LLGP=.TRUE.,
   TFP_HTB%IBITS=16,
   TFP_HTB%LLGP=.TRUE.,
   TFP_MSAT9C2%IBITS=16,
   TFP_MSAT9C6%IBITS=16,
   GFP_CSOC%IBITS=16,
   GFP_CSOD%IBITS=16,
   GFP_CTHC%IBITS=16,
   GFP_CTHD%IBITS=16,
   GFP_XUGST%CLNAME='CLSU.RAF60M.XFU',
   GFP_XUGST%IBITS=12,
   GFP_XUGST%IANO=0,
   GFP_XVGST%CLNAME='CLSV.RAF60M.XFU',
   GFP_XVGST%IBITS=12,
   GFP_XVGST%IANO=0,
   TFP_TKE%IBITS=16,
   TFP_EDR%IBITS=16,
   GFP_DST%IANO=0,
   GFP_SSW%IANO=0,
   GFP_DSW%IANO=0,
   GFP_FSSW%IANO=0,
   GFP_FDSW%IANO=0,
   GFP_SD%IANO=0,
   GFP_XUGST2%CLNAME='CLSU.RAF180M.XFU',
   GFP_XUGST2%IBITS=12,
   GFP_XUGST2%IANO=0,
   GFP_XVGST2%CLNAME='CLSV.RAF180M.XFU',
   GFP_XVGST2%IBITS=12,
   GFP_XVGST2%IANO=0,
   GFP_SFIS%IBITS=16,
   GFP_VISICLD%CLNAME='CLSVISIN_60',
   GFP_VISIHYD%CLNAME='CLSVISIHYDN60',
   GFP_MXCLWC%CLNAME='CLD_WX_60M',
   GFP_VISICLD2%CLNAME='CLSVISIN_180',
   GFP_VISIHYD2%CLNAME='CLSVISIHYDN180',
   GFP_MXCLWC2%CLNAME='CLD_WX_180M',
   GFP_XX2T%IBITS=16,
   GFP_XN2T%IBITS=16,
   GFP_XPTYPE%CLNAME='CLSPTYPE_60M',
   GFP_XPTYPE2%CLNAME='CLSPTYPE_180M',
   GFP_XPTYPESEV%CLNAME='CLSPTYPESEV_60M',
   GFP_XPTYPESEV2%CLNAME='CLSPTYPESEV_180M',
   GFP_XPTYPE%IBITS=16,
   GFP_XPTYPESEV%IBITS=16,
   GFP_XPTYPE2%IBITS=16,
   GFP_XPTYPESEV2%IBITS=16,
 /
 &NAMARG
   NCONF=1,
   LECMWF=.FALSE.,
   CNMEXP='FCST',
   LSLAG=.TRUE.,
   NSUPERSEDE=1,
 /
 &NAMARPHY
   CCOUPLING='I',
   LMSE=.FALSE.,
 /
 &NAMCA
 /
 &NAMCAPE
 /
 &NAMCFU
   LCUMFU=.TRUE.,
   LFDUTP=.TRUE.,
   LFPLC=.TRUE.,
   LFPLS=.TRUE.,
   LFR=.TRUE.,
   LFSF=.TRUE.,
   LFSOIL=.TRUE.,
   LMOON=.TRUE.,
   LNEBPAR=.TRUE.,
   LSTRD=.TRUE.,
   LSTRT=.TRUE.,
 /
 &NAMCHEM
 /
 &NAMCHET
 /
 &NAMCHK
 /
 &NAMCLA
 /
 &NAMCLDP
 /
 &NAMCLI
 /
 &NAMCLOP15
 /
 &NAMCLTC
 /
 &NAMCMEM_MW
 /
 &NAMCOK
 /
 &NAMCOM
 /
 &NAMCOMPO
 /
 &NAMCOSJO
 /
 &NAMCOUPLO4
 /
 &NAMCT0
   LFBDAP=.TRUE.,
   LFDBOP=.FALSE.,
   LREGETA=.FALSE.,
   LTWOTL=.TRUE.,
   LSPRT=.TRUE.,
   NDHFZTS(0)=-1,
   NDHFZTS(1)=-6,
   NFRDHFZ=1,
   NFRGDI=1,
   NFRHIS=1,
   NFRPOS=1,
   NFRSDI=1,
   NGDITS(0)=-1,
   NGDITS(1)=0,
   NFPOS=0,
   NSDITS(0)=-13,
   NSDITS(1)=0,
   NSPPR=1,
   CFPNCF='ECHFP',
   CNPPATH='.',
   NHISTS(0)=-7,
   NHISTS(1)=0,
   NHISTS(2)=-1,
   NHISTS(3)=-2,
   NHISTS(4)=-3,
   NHISTS(5)=-4,
   NHISTS(6)=-5,
   NHISTS(7)=-6,
   NPOSTS(0)=0,
   NPOSTS(1)=0,
   NPOSTS(2)=-1,
   NPOSTS(3)=-2,
   NPOSTS(4)=-3,
   NPOSTS(5)=-4,
   NPOSTS(6)=-5,
   NPOSTS(7)=-6,
   NSFXHISTS(0)=-2,
   NSFXHISTS(1)=-3,
   NSFXHISTS(2)=-6,
   LOLDPP=.FALSE.,
   NSDITS(2)=-1,
   NSDITS(3)=-2,
   NSDITS(4)=-3,
   NSDITS(5)=-4,
   NSDITS(6)=-5,
   NSDITS(7)=-6,
   NSDITS(8)=-7,
   NSDITS(9)=-8,
   NSDITS(10)=-9,
   NSDITS(11)=-10,
   NSDITS(12)=-11,
   NSDITS(13)=-12,
 /
 &NAMCT1
   LRFILAF=.FALSE.,
   N1POS=1,
   N1RES=0,
   N1SFXHIS=0,
 /
 &NAMCUMF
 /
 &NAMCUMFS
 /
 &NAMCVER
   LVERTFE=.TRUE.,
   CVFE_ETAH='CHORDAL',
   NVFE_TYPE=3,
 /
 &NAMCVMNH
   OTADJS=10800.,
   XCDEPTH=1.,
   XCDEPTH_D=4000.,
   XDTPERT=0.3,
   XENTR=0.01,
   LSMOOTH=.FALSE.,
   XATPERT=500.,
   XBTPERT=0.5,
   XAW=1.,
   XBW=0.5,
 /
 &NAMDDH
   LHDEFZ=.FALSE.,
   LHDHKS=.FALSE.,
   LHDZON=.FALSE.,
   NDHKD=0,
   LHDGLB=.FALSE.,
   LHDDOP=.FALSE.,
   NDHZPR=0,
   LHDPRG=.FALSE.,
   LHDPRZ=.FALSE.,
   LHDPRD=.FALSE.,
   LHDEFG=.FALSE.,
   LHDEFD=.FALSE.,
   LFLEXDIA=.FALSE.,
   LDDH_OMP=.FALSE.,
 /
 &NAMDFI
 /
 &NAMDIM
   NPROMA=50,
 /
 &NAMDIMO
 /
 &NAMDIM_TRAJ
 /
 &NAMDPHY
   NCSNEC=1,
 /
 &NAMDPRECIPS
 /
 &NAMDVISI
   HVISI=10.,
 /
 &NAMDYN
   LADVF=.TRUE.,
   NTLAG=3,
   NVLAG=3,
   NWLAG=3,
   RCMSLP0=1.,
   REPS1=0.,
   REPS2=0.,
   REPSM1=0.,
   REPSM2=0.,
   REPSP1=0.,
   RW2TLFF=1.,
   SIPR=100000.,
   SITR=350.,
   VESL=0.,
   XIDT=0.,
   RDAMPDIV=4.,
   RDAMPQ=0.,
   RDAMPT=0.,
   RDAMPVOR=50.,
   SLEVDH1=0.15,
   SLEVDH2=0.08,
   NITMP=4,
   RATIO_HDI_TOP=20.,
 /
 &NAMDYNA
   LAPRXPK=.TRUE.,
   NDLNPR=0,
   LSETTLS=.TRUE.,
   LSETTLST=.TRUE.,
   LSETTLSV=.TRUE.,
 /
 &NAMDYNCORE
 /
 &NAMEMIS_CONF
 /
 &NAMENKF
 /
 &NAMFA
   NBITCS=30,
   NBITPG=30,
   NSTRON=-1,
   LSUPPDATE=.FALSE.,
   YFATKE%NBITS=24,
   YFACLF%NBITS=6,
   YFAIRAD%NBITS=12,
   YFALRAD%NBITS=12,
   CMODEL='OUTPUTID',
   LEXTERN=.TRUE.,
   NVGRIB=123,
 /
 &NAMFAINIT
   JPXTRO=2000,
 /
 &NAMFPC
   CFPFMT='LALON',
   NFITI=1,
   NFITV=1,
   LFPMOIS=.TRUE.,
   NFPCLI=1,
   NFPGRIB=141,
   RFPVCAP=7000.,
   NFPCAPE=5,
   RENTRA=0.0001,
   LFPPACKING=.FALSE.,
   NITERPV=8,
   LCRITSNOWTEMP=.FALSE.,
   LFPCAPEX=.TRUE.,
   NFPINPHY=4,
   CFPDOM(1)='GLOB01',
   CFPDOM(2)='EURAT1S20',
   CFPDOM(3)='EURAT01',
   CFPDOM(4)='ATOURX01',
   CFPDOM(5)='GLOB025',
   CFP2DF(1)='SURFPRESSION',
   CFP2DF(2)='MSLPRESSURE',
   CFP2DF(3)='SURFTOT.WAT.VAPO',
   CFP2DF(4)='SURFISOTPW0.MALT',
   CFP2DF(5)='SURFCAPE.POS.F00',
   CFP2DF(6)='C002_METEOSAT_09_SEVIRI.POS',
   CFP2DF(7)='C006_METEOSAT_09_SEVIRI.POS',
   CFP2DF(8)='SURFISOTPW1.MALT',
   CFP2DF(9)='SURFISOTPW2.MALT',
   CFP3DF(1)='GEOPOTENTIEL',
   CFP3DF(2)='TEMPERATURE',
   CFP3DF(3)='VENT_ZONAL',
   CFP3DF(4)='VENT_MERIDIEN',
   CFP3DF(5)='HUMI_RELATIVE',
   CFP3DF(6)='THETA_PRIM_W',
   CFP3DF(7)='PRESSURE',
   CFP3DF(8)='ABS_VORTICITY',
   CFP3DF(9)='VITESSE_VERTICALE',
   CFP3DF(10)='DIVERGENCE',
   CFP3DF(11)='POT_VORTICIT',
   CFP3DF(12)='TEMPE_POTENT',
   CFP3DF(13)='ISOT_ALTIT',
   CFP3DF(14)='RAD_LIQUID_WATER',
   CFP3DF(15)='RAD_SOLID_WATER',
   CFP3DF(16)='CLOUD_FRACTI',
   CFP3DF(17)='TKE',
   CFP3DF(18)='EDR',
   CFPPHY(1)='SURFTEMPERATURE',
   CFPPHY(2)='PROFTEMPERATURE',
   CFPPHY(3)='SURFRESERV.EAU',
   CFPPHY(4)='PROFRESERV.EAU',
   CFPPHY(5)='SURFRESERV.GLACE',
   CFPPHY(6)='PROFRESERV.GLACE',
   CFPPHY(7)='SURFRESERV.NEIGE',
   CFPPHY(8)='INTSURFGEOPOTENT',
   CFPXFU(1)='SURFNEBUL.TOTALE',
   CFPXFU(2)='SURFNEBUL.CONVEC',
   CFPXFU(3)='SURFNEBUL.HAUTE',
   CFPXFU(4)='SURFNEBUL.MOYENN',
   CFPXFU(5)='SURFNEBUL.BASSE',
   CFPXFU(6)='SURFCAPE.MOD.XFU',
   CFPXFU(7)='CLPMOCON.MOD.XFU',
   CFPXFU(8)='CLPMHAUT.MOD.XFU',
   CFPXFU(9)='CLSU.RAF60M.XFU',
   CFPXFU(10)='CLSV.RAF60M.XFU',
   CFPXFU(11)='CLSTEMPERATURE',
   CFPXFU(12)='CLSHUMI.RELATIVE',
   CFPXFU(13)='CLSVENT.ZONAL',
   CFPXFU(14)='CLSVENT.MERIDIEN',
   CFPXFU(15)='CLSMAXI.TEMPERAT',
   CFPXFU(16)='CLSMINI.TEMPERAT',
   CFPXFU(17)='CLSU.RAF180M.XFU',
   CFPXFU(18)='CLSV.RAF180M.XFU',
   CFPXFU(19)='CLPTOPCONV.MOD.XFU',
   CFPXFU(20)='CLSVISIN_60',
   CFPXFU(21)='CLSVISIHYDN60',
   CFPXFU(22)='CLD_WX_60M',
   CFPXFU(23)='CLSVISIN_180',
   CFPXFU(24)='CLSVISIHYDN180',
   CFPXFU(25)='CLD_WX_180M',
   CFPXFU(26)='CLSPTYPE_60M',
   CFPXFU(27)='CLSPTYPESEV_60M',
   CFPXFU(28)='CLSPTYPE_180M',
   CFPXFU(29)='CLSPTYPESEV_180M',
   CFPCFU(1)='SURFTENS.TOTA.ZO',
   CFPCFU(2)='SURFTENS.TOTA.ME',
   CFPCFU(3)='SURFPREC.EAU.CON',
   CFPCFU(4)='SURFPREC.NEI.CON',
   CFPCFU(5)='SURFPREC.EAU.GEC',
   CFPCFU(6)='SURFPREC.NEI.GEC',
   CFPCFU(7)='SOMMFLU.RAY.SOLA',
   CFPCFU(8)='SURFFLU.RAY.SOLA',
   CFPCFU(9)='SOMMFLU.RAY.THER',
   CFPCFU(10)='SURFFLU.RAY.THER',
   CFPCFU(11)='SURFFLU.LAT.MTOT',
   CFPCFU(12)='SURFFLU.MTOTA.NE',
   CFPCFU(13)='SURFFLU.CHA.SENS',
   CFPCFU(14)='SURFRAYT.LUNE.DE',
   CFPCFU(15)='SURFRAYT SOL CL',
   CFPCFU(16)='SURFRAYT THER CL',
   CFPCFU(17)='SURFRAYT SOLA DE',
   CFPCFU(18)='SURFRAYT THER DE',
   CFPCFU(19)='SURFRAYT DIR SUR',
   RFP3H(1)=10.,
   RFP3H(2)=20.,
   RFP3H(3)=35.,
   RFP3H(4)=50.,
   RFP3H(5)=75.,
   RFP3H(6)=100.,
   RFP3H(7)=150.,
   RFP3H(8)=200.,
   RFP3H(9)=250.,
   RFP3H(10)=375.,
   RFP3H(11)=500.,
   RFP3H(12)=625.,
   RFP3H(13)=750.,
   RFP3H(14)=875.,
   RFP3H(15)=1000.,
   RFP3H(16)=1125.,
   RFP3H(17)=1250.,
   RFP3H(18)=1375.,
   RFP3H(19)=1500.,
   RFP3H(20)=1750.,
   RFP3H(21)=2000.,
   RFP3H(22)=2250.,
   RFP3H(23)=2500.,
   RFP3H(24)=2750.,
   RFP3H(25)=3000.,
   RFP3P(1)=100.,
   RFP3P(2)=200.,
   RFP3P(3)=300.,
   RFP3P(4)=500.,
   RFP3P(5)=700.,
   RFP3P(6)=1000.,
   RFP3P(7)=2000.,
   RFP3P(8)=3000.,
   RFP3P(9)=5000.,
   RFP3P(10)=7000.,
   RFP3P(11)=10000.,
   RFP3P(12)=12500.,
   RFP3P(13)=15000.,
   RFP3P(14)=17500.,
   RFP3P(15)=20000.,
   RFP3P(16)=22500.,
   RFP3P(17)=25000.,
   RFP3P(18)=27500.,
   RFP3P(19)=30000.,
   RFP3P(20)=35000.,
   RFP3P(21)=40000.,
   RFP3P(22)=45000.,
   RFP3P(23)=50000.,
   RFP3P(24)=55000.,
   RFP3P(25)=60000.,
   RFP3P(26)=65000.,
   RFP3P(27)=70000.,
   RFP3P(28)=75000.,
   RFP3P(29)=80000.,
   RFP3P(30)=85000.,
   RFP3P(31)=90000.,
   RFP3P(32)=92500.,
   RFP3P(33)=95000.,
   RFP3P(34)=100000.,
   RFP3PV(1)=0.0000015,
   RFP3PV(2)=0.000002,
   RFP3PV(3)=7.0D-7,
   RFP3I(1)=-273.15,
   RFP3I(2)=-263.15,
   RFP3I(3)=-261.15,
   RFP3I(4)=-253.15,
 /
 &NAMFPD
 /
 &NAMFPDY2
 /
 &NAMFPDYF
 /
 &NAMFPDYH
 /
 &NAMFPDYI
 /
 &NAMFPDYP
 /
 &NAMFPDYS
 /
 &NAMFPDYT
 /
 &NAMFPDYV
 /
 &NAMFPF
   NFPCMAX=4049,
   LFPRDFIL=.FALSE.,
   NFMAX(1)=350,
   NFMAX(2)=350,
   NFMAX(3)=450,
   NFMAX(4)=450,
   NFMAX(5)=350,
 /
 &NAMFPG
 /
 &NAMFPIOS
   NFPXFLD=128,
 /
 &NAMFPMOVE
 /
 &NAMFPPHY
 /
 &NAMFPSC2
   NFPROMA=50,
 /
 &NAMFPSC2_DEP
   NFPROMA_DEP=50,
 /
 &NAMGEM
 /
 &NAMGFL
   YI_NL%LADV=.TRUE.,
   YI_NL%LGP=.TRUE.,
   YI_NL%LGPINGP=.TRUE.,
   YI_NL%LPHY=.FALSE.,
   YI_NL%LQM=.TRUE.,
   YI_NL%LREQOUT=.TRUE.,
   YI_NL%LT1=.TRUE.,
   YI_NL%NREQIN=1,
   YL_NL%LADV=.TRUE.,
   YL_NL%LGP=.TRUE.,
   YL_NL%LGPINGP=.TRUE.,
   YL_NL%LPHY=.FALSE.,
   YL_NL%LQM=.TRUE.,
   YL_NL%LREQOUT=.TRUE.,
   YL_NL%LT1=.TRUE.,
   YL_NL%NREQIN=1,
   YR_NL%LADV=.TRUE.,
   YR_NL%LGP=.TRUE.,
   YR_NL%LGPINGP=.TRUE.,
   YR_NL%LPHY=.FALSE.,
   YR_NL%LQM=.TRUE.,
   YR_NL%LREQOUT=.TRUE.,
   YR_NL%LT1=.TRUE.,
   YR_NL%NREQIN=1,
   YS_NL%LADV=.TRUE.,
   YS_NL%LGP=.TRUE.,
   YS_NL%LGPINGP=.TRUE.,
   YS_NL%LPHY=.FALSE.,
   YS_NL%LQM=.TRUE.,
   YS_NL%LREQOUT=.TRUE.,
   YS_NL%LT1=.TRUE.,
   YS_NL%NREQIN=1,
   YTKE_NL%LADV=.TRUE.,
   YTKE_NL%LGP=.TRUE.,
   YTKE_NL%LGPINGP=.TRUE.,
   YTKE_NL%LQM=.TRUE.,
   YTKE_NL%LREQOUT=.TRUE.,
   YTKE_NL%LT1=.TRUE.,
   YTKE_NL%NCOUPLING=0,
   YTKE_NL%NREQIN=1,
   YA_NL%LGP=.TRUE.,
   YA_NL%LREQOUT=.TRUE.,
   YA_NL%NREQIN=0,
   YIRAD_NL%LGP=.TRUE.,
   YIRAD_NL%LREQOUT=.TRUE.,
   YIRAD_NL%NREQIN=0,
   YLRAD_NL%LGP=.TRUE.,
   YLRAD_NL%LREQOUT=.TRUE.,
   YLRAD_NL%NREQIN=0,
 /
 &NAMGRIB
   NCYCLE=47,
 /
 &NAMGWD
 /
 &NAMGWDIAG
 /
 &NAMGWWMS
 /
 &NAMIAU
 /
 &NAMICE
 /
 &NAMINI
 /
 &NAMINTFLEX
 /
 &NAMIOMI
 /
 &NAMIOS
 /
 &NAMIO_SERV
   NPROC_IO=0,
   NIO_SERV_METHOD=2,
   NMSG_LEVEL_SERVER=1,
   NMSG_LEVEL_CLIENT=1,
   NIO_SERV_BUF_MAXSIZE=20,
   NPROCESS_LEVEL=5,
 /
 &NAMJBCODES
 /
 &NAMJG
 /
 &NAMLCZ
 /
 &NAMLIMA
 /
 &NAMLSFORC
 /
 &NAMMARS
 /
 &NAMMCC
 /
 &NAMMCUF
 /
 &NAMMETHOX
 /
 &NAMMKODB
 /
 &NAMMODERR
 /
 &NAMMTS
   LUBIQUITAIRE=.FALSE.,
   LISP_HYBRID=.TRUE.,
 /
 &NAMMWAVE
 /
 &NAMNORGWD
 /
 &NAMNPROF
 /
 &NAMNUD
 /
 &NAMNUDGLH
 /
 &NAMOBS
 /
 &NAMONEDVAR
 /
 &NAMOOPS
 /
 &NAMOPH
   CFNHWF='ECHIS',
   LINC=.TRUE.,
   NTIMEFMT=1,
 /
 &NAMOPTCMEM
 /
 &NAMPAR0
   MBX_SIZE=2048000000,
   MP_TYPE=2,
   NOUTPUT=1,
   NPROC=128,
   NSPECRESMIN=1199,
 /
 &NAMPAR1
   LEQ_REGIONS=.TRUE.,
   LSLONDEM=.TRUE.,
   LSPLIT=.TRUE.,
   NCOMBFLEN=1638400,
   NSTRIN=128,
   NSTROUT=128,
 /
 &NAMPARAR
 /
 &NAMPERTPAR
 /
 &NAMPHMSE
   LPGDFWR=.FALSE.,
 /
 &NAMPHY
   CGMIXLEN='AY',
   LAERODES=.TRUE.,
   LAEROLAN=.TRUE.,
   LAEROSEA=.TRUE.,
   LAEROSOO=.TRUE.,
   LCONDWT=.TRUE.,
   LDIFCONS=.TRUE.,
   LFPCOR=.TRUE.,
   LNEWD=.TRUE.,
   LNOIAS=.TRUE.,
   LO3ABC=.TRUE.,
   LPROCLD=.TRUE.,
   LRAY=.FALSE.,
   LRAYFM=.TRUE.,
   LRAYLU=.TRUE.,
   LRNUMX=.TRUE.,
   LSSD=.TRUE.,
   LSTRA=.FALSE.,
   LVGSN=.TRUE.,
   LCVPPKF=.TRUE.,
   LECDEEP=.TRUE.,
   LECSHAL=.TRUE.,
   LECT=.TRUE.,
   LFLUSO=.TRUE.,
   LNEBECT=.FALSE.,
   LSMITH_CDEV=.TRUE.,
   LO3FL=.TRUE.,
   LECTFL=.TRUE.,
   LZ0HSREL=.TRUE.,
   LADJCLD=.TRUE.,
   NCALLRAD=2,
   LECTFL0=.TRUE.,
   LGLACIERS=.TRUE.,
   LEDR=.TRUE.,
   LCVRA=.TRUE.,
   LEDMFI=.FALSE.,
   LGPCMT=.FALSE.,
   LNCVPGY=.FALSE.,
   LPTOPC=.TRUE.,
   LDPRECIPS=.TRUE.,
   LDPRECIPS2=.TRUE.,
   NDPRECPERIOD2=3600,
 /
 &NAMPHY0
   EDD=1.,
   EDK=1.,
   GWDCD=5.4,
   GWDSE=0.005,
   GWDVALI=0.5,
   REVASX=2.0D-7,
   RICRLM=0.5,
   TDDGP=0.6,
   TUDGP=0.6,
   USURIC=0.175,
   USURICL=1.,
   USURID=0.1,
   VZ0CM=0.0001,
   XBLM=8.5,
   XMAXLM=5000.,
   XMINLM=10.,
   ALMAVX=1000.,
   RFACNSM=1.2,
   RFLCHCE=0.25,
   RKFBTAU=7200.,
   RPRTH=1.,
   RQICRT2=0.,
   RQICVMIN=0.00001,
   SXNBCO=1.,
   ALMAVE=0.,
   RQCRNS=0.,
   RQICRSN=1.,
   TFVI=0.08,
   TFVL=0.02,
   TFVS=1.5,
   ECTMAX=35.,
   AECLS4=3.,
   GCVNU=0.00005,
   GCVPSI=1.,
   GCVPSIE=1.,
   QSNEBC=-1.,
   QSSUSC=5.,
   RCVEVAP=0.25,
   GCVHMIN=30000.,
   GCVOMGE=1.,
   GDDEVA=0.2,
   GCVOMGQ=0.,
   REFLKUO=5000.,
   GCVOMDPS=2000.,
   GCVOMGSX=0.5,
   GCVOMCA=-1.918,
   GCVOMCC=1.35,
   GCVRHMIN=0.5,
   GCVRHMAX=1.,
   GCVOMGS=1.,
 /
 &NAMPHY1
   ALBMIN=0.65,
   ALCRIN=0.81,
   EMMGLA=0.98,
   EMMMER=0.99,
   ALRCN1=0.01,
 /
 &NAMPHY2
   FACRAF=4.,
   XMULAF=0.,
   LRAFTKE=.TRUE.,
   HTKERAF=20.,
   FACRAFCV=0.5,
 /
 &NAMPHY3
 /
 &NAMPHYDS
 /
 &NAMPONG
 /
 &NAMPPC
 /
 &NAMPPVI
 /
 &NAMPRE
 /
 &NAMRAD15
 /
 &NAMRADCMEM
 /
 &NAMRCF
 /
 &NAMRCOEF
 /
 &NAMRES
 /
 &NAMRGRI
 /
 &NAMRINC
 /
 &NAMRIP
   CSTOP='h6',
   TSTEP=600.,
 /
 &NAMRIP0
 /
 &NAMRLX
 /
 &NAMSATS
   LPARTIAL_COEF_FILES=.TRUE.,
 /
 &NAMSATSIM
 /
 &NAMSCC
 /
 &NAMSCEN
 /
 &NAMSCM
 /
 &NAMSEKF
 /
 &NAMSENS
 /
 &NAMSFXCMP
   CFLDNAME(1)='????????????????',
   NBBITS(1)=24,
   NVGRIBSFX=123,
 /
 &NAMSIMPHL
 /
 &NAMSPNG
 /
 &NAMSPP
 /
 &NAMSPSDT
 /
 &NAMSTA
 /
 &NAMSTOPH
 /
 &NAMSWE
 /
 &NAMTESTVAR
 /
 &NAMTHLIM
 /
 &NAMTOPH
   ETCVIM=5000.,
   ETNEBU=5000.,
   ETPLUI=5000.,
   XDRMTK=2.0D-8,
   XDRMTP=800.,
   XDRMTX=4.0D-7,
   XDRMUK=1.0D-7,
   XDRMUP=800.,
   XDRMUX=0.000002,
 /
 &NAMTRAJ
 /
 &NAMTRAJP
 /
 &NAMTRANS
 /
 &NAMTRANS0
 /
 &NAMTS
 /
 &NAMVAR
 /
 &NAMVARBC
 /
 &NAMVARBC_AIREP
 /
 &NAMVARBC_ALLSKY
 /
 &NAMVARBC_GBRAD
 /
 &NAMVARBC_MODES
 /
 &NAMVARBC_RAD
 /
 &NAMVARBC_RSONDE
 /
 &NAMVARBC_SFCOBS
 /
 &NAMVARBC_TCWV
 /
 &NAMVARBC_TO3
 /
 &NAMVAREPS
 /
 &NAMVDF
 /
 &NAMVDOZ
 /
 &NAMVOLCANO
 /
 &NAMVRTL
 /
 &NAMVV0
 /
 &NAMVV1
 /
 &NAMVWRK
 /
 &NAMWAVELETJB
 /
 &NAMXFU
   LXCLP=.TRUE.,
   LXCLS=.TRUE.,
   LXFU=.TRUE.,
   LXHHCLS=.TRUE.,
   LXICV=.TRUE.,
   LXNEBPA=.TRUE.,
   LXNEBTT=.TRUE.,
   LXQCLS=.TRUE.,
   LXSOIL=.TRUE.,
   LXTGST=.TRUE.,
   LXTTCLS=.TRUE.,
   LXXGST=.TRUE.,
   LXXGST2=.TRUE.,
   LXNUVCLS=.TRUE.,
   NXGSTPERIOD2=10800,
   LXVISI=.TRUE.,
   LXVISI2=.TRUE.,
   NVISIPERIOD2=10800,
   LXCTOP=.TRUE.,
   NRAZTS(1)=0,
   NRAZTS(2)=-3,
   NRAZTS(3)=-6,
 /
 &NAM_CANAPE
 /
 &NAM_DISTRIBUTED_VECTORS
 /
 &NAPHLC
 /
 &NEMCT0
 /
 &NEMDIM
 /
 &NEMDYN
 /
 &NEMELBC0A
 /
 &NEMELBC0B
 /
 &NEMFPEZO
 /
 &NEMGEO
 /
 &NEMJK
 /
 &NEMVAR
 /
 &NEMWAVELET
 /
